
     RDKit          3D

135130  0  0  0  0  0  0  0  0999 V2000
   -1.9141    4.0309    0.1546 C   0  0  0  0  0  0  0  0  0  0  0  0
   -3.0792    3.1815   -0.3223 C   0  0  0  0  0  0  0  0  0  0  0  0
   -3.2544    1.8767    0.4625 C   0  0  0  0  0  0  0  0  0  0  0  0
   -2.1250    0.8645    0.2001 C   0  0  0  0  0  0  0  0  0  0  0  0
   -2.5534   -0.5607    0.5230 C   0  0  0  0  0  0  0  0  0  0  0  0
   -3.4947   -0.7556    1.2926 O   0  0  0  0  0  0  0  0  0  0  0  0
   -1.8718   -1.6009   -0.1100 N   0  0  0  0  0  0  0  0  0  0  0  0
   -0.8402   -1.3952   -1.1296 C   0  0  0  0  0  0  0  0  0  0  0  0
    0.4379   -0.7474   -0.6448 C   0  0  0  0  0  0  0  0  0  0  0  0
    1.0119    0.3020   -1.3782 C   0  0  0  0  0  0  0  0  0  0  0  0
    2.2438    0.8490   -1.0049 C   0  0  0  0  0  0  0  0  0  0  0  0
    2.9405    0.3588    0.1103 C   0  0  0  0  0  0  0  0  0  0  0  0
    2.3485   -0.6674    0.8631 C   0  0  0  0  0  0  0  0  0  0  0  0
    1.1138   -1.2188    0.4880 C   0  0  0  0  0  0  0  0  0  0  0  0
    4.3338    0.7659    0.3487 C   0  0  0  0  0  0  0  0  0  0  0  0
    5.3284   -0.0888   -0.1945 C   0  0  0  0  0  0  0  0  0  0  0  0
    6.6905    0.1975   -0.1021 C   0  0  0  0  0  0  0  0  0  0  0  0
    7.1067    1.3392    0.5634 C   0  0  0  0  0  0  0  0  0  0  0  0
    6.1491    2.2044    1.1034 C   0  0  0  0  0  0  0  0  0  0  0  0
    4.7659    1.9363    0.9997 C   0  0  0  0  0  0  0  0  0  0  0  0
    3.7901    3.0282    1.6501 C   0  0  0  0  0  0  0  0  0  0  0  0
    4.2502    4.2023    2.1653 N   0  0  0  0  0  0  0  0  0  0  0  0
    3.1564    4.8112    2.6915 N   0  0  0  0  0  0  0  0  0  0  0  0
    2.0658    4.0592    2.4316 N   0  0  0  0  0  0  0  0  0  0  0  0
    2.4362    2.9558    1.7319 N   0  0  0  0  0  2  0  0  0  0  0  0
   -2.4127   -3.0030    0.0439 C   0  0  0  0  0  0  0  0  0  0  0  0
   -3.4012   -3.3691   -1.1085 C   0  0  0  0  0  0  0  0  0  0  0  0
   -4.4855   -2.3055   -1.3359 C   0  0  0  0  0  0  0  0  0  0  0  0
   -4.1040   -4.7073   -0.8368 C   0  0  0  0  0  0  0  0  0  0  0  0
   -1.3064   -4.1200    0.1899 C   0  0  0  0  0  0  0  0  0  0  0  0
   -0.8696   -4.6205   -0.8903 O   0  0  0  0  0  0  0  0  0  0  0  0
   -0.9875   -4.4216    1.3763 O   0  0  0  0  0  1  0  0  0  0  0  0
   -2.1232    4.3464    0.0302 C   0  0  0  0  0  0  0  0  0  0  0  0
   -3.4365    4.0453   -0.6764 C   0  0  0  0  0  0  0  0  0  0  0  0
   -3.9769    2.6418   -0.3937 C   0  0  0  0  0  0  0  0  0  0  0  0
   -3.0813    1.5187   -0.9336 C   0  0  0  0  0  0  0  0  0  0  0  0
   -3.5656    0.1500   -0.4741 C   0  0  0  0  0  0  0  0  0  0  0  0
   -4.7465   -0.0296   -0.1562 O   0  0  0  0  0  0  0  0  0  0  0  0
   -2.6085   -0.8705   -0.4623 N   0  0  0  0  0  0  0  0  0  0  0  0
   -1.4656   -0.8691   -1.3803 C   0  0  0  0  0  0  0  0  0  0  0  0
   -0.1114   -0.4146   -0.8800 C   0  0  0  0  0  0  0  0  0  0  0  0
    0.1364    0.0020    0.4293 C   0  0  0  0  0  0  0  0  0  0  0  0
    1.4144    0.4140    0.8208 C   0  0  0  0  0  0  0  0  0  0  0  0
    2.4937    0.4550   -0.0860 C   0  0  0  0  0  0  0  0  0  0  0  0
    2.2445    0.0319   -1.3961 C   0  0  0  0  0  0  0  0  0  0  0  0
    0.9706   -0.4075   -1.7839 C   0  0  0  0  0  0  0  0  0  0  0  0
    3.7895    1.0395    0.3194 C   0  0  0  0  0  0  0  0  0  0  0  0
    3.7460    2.3759    0.8022 C   0  0  0  0  0  0  0  0  0  0  0  0
    4.8795    3.0660    1.2278 C   0  0  0  0  0  0  0  0  0  0  0  0
    6.1156    2.4406    1.1728 C   0  0  0  0  0  0  0  0  0  0  0  0
    6.2027    1.1422    0.6764 C   0  0  0  0  0  0  0  0  0  0  0  0
    5.0577    0.4188    0.2660 C   0  0  0  0  0  0  0  0  0  0  0  0
    5.3401   -1.0893   -0.2185 C   0  0  0  0  0  0  0  0  0  0  0  0
    4.4209   -2.0053   -0.5997 N   0  0  0  0  0  0  0  0  0  0  0  0
    5.1338   -3.1195   -0.8998 N   0  0  0  0  0  0  0  0  0  0  0  0
    6.4436   -2.8674   -0.7416 N   0  0  0  0  0  0  0  0  0  0  0  0
    6.6040   -1.5921   -0.3204 N   0  0  0  0  0  2  0  0  0  0  0  0
   -2.9119   -2.0443    0.4528 C   0  0  0  0  0  0  0  0  0  0  0  0
   -1.9365   -3.2630    0.3286 C   0  0  0  0  0  0  0  0  0  0  0  0
   -2.3905   -4.2049   -0.7990 C   0  0  0  0  0  0  0  0  0  0  0  0
   -1.7631   -4.1103    1.5924 C   0  0  0  0  0  0  0  0  0  0  0  0
   -3.1824   -1.6080    1.9612 C   0  0  0  0  0  0  0  0  0  0  0  0
   -2.6835   -0.5127    2.3437 O   0  0  0  0  0  0  0  0  0  0  0  0
   -3.8986   -2.4217    2.6305 O   0  0  0  0  0  1  0  0  0  0  0  0
    3.2426   -1.2287   -5.0344 C   0  0  0  0  0  0  0  0  0  0  0  0
    3.7133   -1.7302   -3.6806 C   0  0  0  0  0  0  0  0  0  0  0  0
    2.8871   -1.1346   -2.6755 O   0  0  0  0  0  0  0  0  0  0  0  0
    3.2460   -1.4443   -1.3980 C   0  0  0  0  0  0  0  0  0  0  0  0
    4.1675   -2.1963   -1.1084 O   0  0  0  0  0  0  0  0  0  0  0  0
    2.3269   -0.8048   -0.3679 C   0  0  0  0  0  0  0  0  0  0  0  0
    1.4631   -1.9218    0.2357 C   0  0  0  0  0  0  0  0  0  0  0  0
    1.4504    0.3305   -0.9454 C   0  0  0  0  0  0  0  0  0  0  0  0
    0.8973    1.2633    0.1540 C   0  0  0  0  0  0  0  0  0  0  0  0
   -0.5617    1.6932   -0.1335 C   0  0  0  0  0  0  0  0  0  0  0  0
   -1.5635    0.5987    0.1783 C   0  0  0  0  0  0  0  0  0  0  0  0
   -2.1896   -0.1285   -0.8421 C   0  0  0  0  0  0  0  0  0  0  0  0
   -3.0928   -1.1513   -0.5301 C   0  0  0  0  0  0  0  0  0  0  0  0
   -3.4000   -1.4699    0.8041 C   0  0  0  0  0  0  0  0  0  0  0  0
   -2.7674   -0.7291    1.8158 C   0  0  0  0  0  0  0  0  0  0  0  0
   -1.8625    0.2892    1.5100 C   0  0  0  0  0  0  0  0  0  0  0  0
   -4.3562   -2.5394    1.1370 C   0  0  0  0  0  0  0  0  0  0  0  0
   -5.4365   -2.2971    2.0057 C   0  0  0  0  0  0  0  0  0  0  0  0
   -6.3382   -3.3123    2.3355 C   0  0  0  0  0  0  0  0  0  0  0  0
   -6.1762   -4.5892    1.8036 C   0  0  0  0  0  0  0  0  0  0  0  0
   -5.1159   -4.8506    0.9372 C   0  0  0  0  0  0  0  0  0  0  0  0
   -4.2146   -3.8325    0.6086 C   0  0  0  0  0  0  0  0  0  0  0  0
    1.7601    2.4376    0.2551 N   0  0  0  0  0  0  0  0  0  0  0  0
    1.8161    3.2022    1.4119 C   0  0  0  0  0  0  0  0  0  0  0  0
    1.2447    2.8865    2.4465 O   0  0  0  0  0  0  0  0  0  0  0  0
    2.6035    4.4782    1.1962 C   0  0  0  0  0  0  0  0  0  0  0  0
    2.9377    5.2155    2.4821 C   0  0  0  0  0  0  0  0  0  0  0  0
    3.6713    6.5267    2.2138 C   0  0  0  0  0  0  0  0  0  0  0  0
    3.6931    6.9285    1.0153 O   0  0  0  0  0  0  0  0  0  0  0  0
    4.1759    7.0628    3.2412 O   0  0  0  0  0  1  0  0  0  0  0  0
   -3.1265   -4.2068    0.1577 C   0  0  0  0  0  0  0  0  0  0  0  0
   -4.2159   -3.3393   -0.4482 C   0  0  0  0  0  0  0  0  0  0  0  0
   -3.6296   -2.2395   -1.1571 O   0  0  0  0  0  0  0  0  0  0  0  0
   -3.3293   -1.1510   -0.3902 C   0  0  0  0  0  0  0  0  0  0  0  0
   -3.5428   -1.0695    0.8116 O   0  0  0  0  0  0  0  0  0  0  0  0
   -2.6908   -0.0737   -1.2515 C   0  0  0  0  0  0  0  0  0  0  0  0
   -3.7987    0.7247   -1.9324 C   0  0  0  0  0  0  0  0  0  0  0  0
   -1.7735    0.8140   -0.3955 C   0  0  0  0  0  0  0  0  0  0  0  0
   -0.8043    1.7072   -1.2085 C   0  0  0  0  0  0  0  0  0  0  0  0
    0.3287    0.9093   -1.9056 C   0  0  0  0  0  0  0  0  0  0  0  0
    1.2108    0.0608   -1.0111 C   0  0  0  0  0  0  0  0  0  0  0  0
    2.2458    0.6428   -0.2753 C   0  0  0  0  0  0  0  0  0  0  0  0
    3.0703   -0.1420    0.5377 C   0  0  0  0  0  0  0  0  0  0  0  0
    2.8858   -1.5302    0.6412 C   0  0  0  0  0  0  0  0  0  0  0  0
    1.8448   -2.1049   -0.1051 C   0  0  0  0  0  0  0  0  0  0  0  0
    1.0192   -1.3238   -0.9212 C   0  0  0  0  0  0  0  0  0  0  0  0
    3.7542   -2.3584    1.4989 C   0  0  0  0  0  0  0  0  0  0  0  0
    3.2172   -3.3170    2.3758 C   0  0  0  0  0  0  0  0  0  0  0  0
    4.0430   -4.1062    3.1840 C   0  0  0  0  0  0  0  0  0  0  0  0
    5.4239   -3.9456    3.1372 C   0  0  0  0  0  0  0  0  0  0  0  0
    5.9795   -3.0003    2.2801 C   0  0  0  0  0  0  0  0  0  0  0  0
    5.1539   -2.2176    1.4681 C   0  0  0  0  0  0  0  0  0  0  0  0
   -0.3415    2.7976   -0.3533 N   0  0  0  0  0  0  0  0  0  0  0  0
    0.3156    3.9009   -0.8564 C   0  0  0  0  0  0  0  0  0  0  0  0
    0.8743    3.9414   -1.9488 O   0  0  0  0  0  0  0  0  0  0  0  0
    0.2654    5.1100    0.0667 C   0  0  0  0  0  0  0  0  0  0  0  0
   -0.9784    5.9758   -0.1656 C   0  0  0  0  0  0  0  0  0  0  0  0
   -2.3086    5.2439    0.0140 C   0  0  0  0  0  0  0  0  0  0  0  0
   -3.2874    5.7444   -0.6108 O   0  0  0  0  0  0  0  0  0  0  0  0
   -2.2473    4.1763    0.6895 O   0  0  0  0  0  1  0  0  0  0  0  0
   -0.0481    0.3931    0.0000 O   0  0  0  0  0  0  0  0  0  0  0  0
   -0.0105    0.3965    0.0000 O   0  0  0  0  0  0  0  0  0  0  0  0
   -0.0183    0.3966    0.0000 O   0  0  0  0  0  0  0  0  0  0  0  0
   -0.0003    0.3970    0.0000 O   0  0  0  0  0  0  0  0  0  0  0  0
   -0.0128    0.3965    0.0000 O   0  0  0  0  0  0  0  0  0  0  0  0
    0.0000    0.0000    0.0000 Na  0  0  0  0  0 15  0  0  0  0  0  0
    0.0000    0.0000    0.0000 Na  0  0  0  0  0 15  0  0  0  0  0  0
    0.0000    0.0000    0.0000 Na  0  0  0  0  0 15  0  0  0  0  0  0
    0.0000    0.0000    0.0000 Na  0  0  0  0  0 15  0  0  0  0  0  0
    0.0000    0.0000    0.0000 Na  0  0  0  0  0 15  0  0  0  0  0  0
    0.0000    0.0000    0.0000 Na  0  0  0  0  0 15  0  0  0  0  0  0
  1  2  1  0
  2  3  1  0
  3  4  1  0
  4  5  1  0
  5  6  2  0
  5  7  1  0
  7  8  1  0
  8  9  1  0
  9 10  2  0
 10 11  1  0
 11 12  2  0
 12 13  1  0
 13 14  2  0
 12 15  1  0
 15 16  2  0
 16 17  1  0
 17 18  2  0
 18 19  1  0
 19 20  2  0
 20 21  1  0
 21 22  2  0
 22 23  1  0
 23 24  2  0
 24 25  1  0
  7 26  1  0
 26 27  1  0
 27 28  1  0
 27 29  1  0
 26 30  1  0
 30 31  2  0
 30 32  1  0
 33 34  1  0
 34 35  1  0
 35 36  1  0
 36 37  1  0
 37 38  2  0
 37 39  1  0
 39 40  1  0
 40 41  1  0
 41 42  2  0
 42 43  1  0
 43 44  2  0
 44 45  1  0
 45 46  2  0
 44 47  1  0
 47 48  2  0
 48 49  1  0
 49 50  2  0
 50 51  1  0
 51 52  2  0
 52 53  1  0
 53 54  2  0
 54 55  1  0
 55 56  2  0
 56 57  1  0
 39 58  1  0
 58 59  1  0
 59 60  1  0
 59 61  1  0
 58 62  1  0
 62 63  2  0
 62 64  1  0
 65 66  1  0
 66 67  1  0
 67 68  1  0
 68 69  2  0
 68 70  1  0
 70 71  1  0
 70 72  1  0
 72 73  1  0
 73 74  1  0
 74 75  1  0
 75 76  2  0
 76 77  1  0
 77 78  2  0
 78 79  1  0
 79 80  2  0
 78 81  1  0
 81 82  2  0
 82 83  1  0
 83 84  2  0
 84 85  1  0
 85 86  2  0
 73 87  1  0
 87 88  1  0
 88 89  2  0
 88 90  1  0
 90 91  1  0
 91 92  1  0
 92 93  2  0
 92 94  1  0
 95 96  1  0
 96 97  1  0
 97 98  1  0
 98 99  2  0
 98100  1  0
100101  1  0
100102  1  0
102103  1  0
103104  1  0
104105  1  0
105106  2  0
106107  1  0
107108  2  0
108109  1  0
109110  2  0
108111  1  0
111112  2  0
112113  1  0
113114  2  0
114115  1  0
115116  2  0
103117  1  0
117118  1  0
118119  2  0
118120  1  0
120121  1  0
121122  1  0
122123  2  0
122124  1  0
 14  9  1  0
 46 41  1  0
 80 75  1  0
110105  1  0
 20 15  1  0
 52 47  1  0
 86 81  1  0
116111  1  0
 25 21  1  0
 57 53  1  0
M  CHG  8  25  -1  32  -1  57  -1  64  -1  94  -1 124  -1 130   1 131   1
M  CHG  4 132   1 133   1 134   1 135   1
M  END
