
     RDKit          3D

 26 29  0  0  0  0  0  0  0  0999 V2000
   -6.9777   -1.7465    0.7093 C   0  0  0  0  0  0  0  0  0  0  0  0
   -6.3859   -0.7102   -0.1723 C   0  0  0  0  0  0  0  0  0  0  0  0
   -6.9673    0.1913   -1.0317 C   0  0  0  0  0  0  0  0  0  0  0  0
   -5.9554    0.9695   -1.6215 C   0  0  0  0  0  0  0  0  0  0  0  0
   -4.7391    0.5180   -1.1317 C   0  0  0  0  0  0  0  0  0  0  0  0
   -5.0298   -0.4872   -0.2309 N   0  0  0  0  0  0  0  0  0  0  0  0
   -3.4186    1.0215   -1.4462 C   0  0  0  0  0  0  0  0  0  0  0  0
   -3.2232    2.1266   -1.9400 O   0  0  0  0  0  0  0  0  0  0  0  0
   -2.3895    0.1402   -1.1693 N   0  0  0  0  0  0  0  0  0  0  0  0
   -1.0043    0.4560   -1.5261 C   0  0  0  0  0  0  0  0  0  0  0  0
   -0.4112    1.5523   -0.6269 C   0  0  0  0  0  0  0  0  0  0  0  0
    0.2984    0.9815    0.5978 C   0  0  0  0  0  0  0  0  0  0  0  0
    1.3263    0.0049    0.2191 N   0  0  0  0  0  0  0  0  0  0  0  0
    1.2949   -0.5238   -1.1458 C   0  0  0  0  0  0  0  0  0  0  0  0
   -0.1518   -0.8205   -1.5229 C   0  0  0  0  0  0  0  0  0  0  0  0
    2.5989    0.1356    0.7797 C   0  0  0  0  0  0  0  0  0  0  0  0
    2.7553    0.4507    2.1281 C   0  0  0  0  0  0  0  0  0  0  0  0
    4.0313    0.5615    2.6754 C   0  0  0  0  0  0  0  0  0  0  0  0
    5.1471    0.3450    1.8674 C   0  0  0  0  0  0  0  0  0  0  0  0
    6.4587    0.4450    2.3657 C   0  0  0  0  0  0  0  0  0  0  0  0
    7.5475    0.2165    1.5273 C   0  0  0  0  0  0  0  0  0  0  0  0
    7.3291   -0.1123    0.1944 C   0  0  0  0  0  0  0  0  0  0  0  0
    6.0219   -0.2106   -0.2930 C   0  0  0  0  0  0  0  0  0  0  0  0
    4.9183    0.0130    0.5201 C   0  0  0  0  0  0  0  0  0  0  0  0
    3.6809   -0.0938    0.0018 N   0  0  0  0  0  0  0  0  0  0  0  0
   -8.7932    0.4117   -1.3935 Br  0  0  0  0  0  0  0  0  0  0  0  0
  1  2  1  0
  2  3  2  0
  3  4  1  0
  4  5  2  0
  5  6  1  0
  5  7  1  0
  7  8  2  0
  7  9  1  0
  9 10  1  0
 10 11  1  0
 11 12  1  0
 12 13  1  0
 13 14  1  0
 14 15  1  0
 13 16  1  0
 16 17  2  0
 17 18  1  0
 18 19  2  0
 19 20  1  0
 20 21  2  0
 21 22  1  0
 22 23  2  0
 23 24  1  0
 24 25  2  0
  3 26  1  0
  6  2  1  0
 15 10  1  0
 25 16  1  0
 24 19  1  0
M  END
