
     RDKit          3D

 26 29  0  0  0  0  0  0  0  0999 V2000
   -6.9727   -1.7539    0.6903 C   0  0  0  0  0  0  0  0  0  0  0  0
   -6.3847   -0.6957   -0.1675 C   0  0  0  0  0  0  0  0  0  0  0  0
   -6.9700    0.2283   -0.9999 C   0  0  0  0  0  0  0  0  0  0  0  0
   -5.9606    1.0212   -1.5745 C   0  0  0  0  0  0  0  0  0  0  0  0
   -4.7421    0.5565   -1.1027 C   0  0  0  0  0  0  0  0  0  0  0  0
   -5.0288   -0.4718   -0.2270 N   0  0  0  0  0  0  0  0  0  0  0  0
   -3.4229    1.0676   -1.4102 C   0  0  0  0  0  0  0  0  0  0  0  0
   -3.2291    2.1855   -1.8749 O   0  0  0  0  0  0  0  0  0  0  0  0
   -2.3931    0.1784   -1.1620 N   0  0  0  0  0  0  0  0  0  0  0  0
   -1.0092    0.5033   -1.5160 C   0  0  0  0  0  0  0  0  0  0  0  0
   -0.4113    1.5728   -0.5883 C   0  0  0  0  0  0  0  0  0  0  0  0
    0.3016    0.9664    0.6173 C   0  0  0  0  0  0  0  0  0  0  0  0
    1.3262   -0.0011    0.2076 N   0  0  0  0  0  0  0  0  0  0  0  0
    1.2903   -0.4893   -1.1722 C   0  0  0  0  0  0  0  0  0  0  0  0
   -0.1578   -0.7734   -1.5536 C   0  0  0  0  0  0  0  0  0  0  0  0
    2.6003    0.1100    0.7688 C   0  0  0  0  0  0  0  0  0  0  0  0
    2.7605    0.3844    2.1256 C   0  0  0  0  0  0  0  0  0  0  0  0
    4.0381    0.4754    2.6732 C   0  0  0  0  0  0  0  0  0  0  0  0
    5.1515    0.2805    1.8565 C   0  0  0  0  0  0  0  0  0  0  0  0
    6.4644    0.3625    2.3545 C   0  0  0  0  0  0  0  0  0  0  0  0
    7.5508    0.1568    1.5071 C   0  0  0  0  0  0  0  0  0  0  0  0
    7.3286   -0.1313    0.1655 C   0  0  0  0  0  0  0  0  0  0  0  0
    6.0201   -0.2119   -0.3217 C   0  0  0  0  0  0  0  0  0  0  0  0
    4.9189   -0.0103    0.5003 C   0  0  0  0  0  0  0  0  0  0  0  0
    3.6801   -0.0985   -0.0181 N   0  0  0  0  0  0  0  0  0  0  0  0
   -8.7976    0.4595   -1.3461 Br  0  0  0  0  0  0  0  0  0  0  0  0
  1  2  1  0
  2  3  2  0
  3  4  1  0
  4  5  2  0
  5  6  1  0
  5  7  1  0
  7  8  2  0
  7  9  1  0
  9 10  1  0
 10 11  1  0
 11 12  1  0
 12 13  1  0
 13 14  1  0
 14 15  1  0
 13 16  1  0
 16 17  2  0
 17 18  1  0
 18 19  2  0
 19 20  1  0
 20 21  2  0
 21 22  1  0
 22 23  2  0
 23 24  1  0
 24 25  2  0
  3 26  1  0
  6  2  1  0
 15 10  1  0
 25 16  1  0
 24 19  1  0
M  END
